#option block.  Note -- no comments allowed on aux line
begin options
  AUX var1 var2 var3
  PACKAGENAME  'wells near river' (16 character limit)
  PRINT_INPUT    (echo input to listing file)
  PRINT_FLOWS    (print the flows to the listing file)
  SAVE_FLOWS   test_obs.cbc (file for binary flow information; must be opened using DATA(BINARY))
end options

begin dimensions
  MAXBOUND 2
end dimensions

begin period 2
#        k         i         j      flux     var1 var2 var3
         2         3         4   -35000.     1       2    3
         2         8         4   -35000.     4       5    6
end period
