begin options
  precision single
  digits 10
  structured
  print_input
  external test_obs.single_ghb.ponds.obs
  external test_obs.continuous_ghb.ponds.obs
end options
