begin options
  SAVE_FLOWS
end options
#
begin stodata
  #iconvert is 0:confined, 1:convertible
  iconvert
    constant 1
  #
  # specific storage
  ss
    constant 1.e-5
  #
  # specific yield
  sy
    constant 0.2
end stodata

begin period 1
  steady-state
end period

begin period 2
  transient
end period

