# Options block
begin options
  packagename  'GHB Ponds' (16 character limit)
  PRINT_INPUT
  PRINT_FLOWS
  BOUNDNAMES
  OBS8         test_obs.ghb.ponds.obs
end options

# Dimensions block
begin dimensions
  maxbound 2
end dimensions

# Stress-period block(s)
begin period 1
  1  3  1  90.0  10000.
  1  7  9  95.0   8000.
end period
  