BEGIN OPTIONS
END OPTIONS

BEGIN INPUT_FILES
  CHD8  test_obs.chd   # includes CHD observations
  DIS8  test_obs.dis
  GHB8  test_obs.ghb   # includes GHB observations
  IC8   test_obs.ic
  NPF8  test_obs.npf
  OBS8  test_obs.obs   # head and intercell flow observations
  OC8   test_obs.oc
  RCH8  test_obs.rch
  RIV8  test_obs.riv   # includes RIV observations
  STO8  test_obs.sto
  WEL8  test_obs.wel
END INPUT_FILES

BEGIN OUTPUT_FILES
  LIST  test_obs.lst
  #
  # Output DATA and DATA(BINARY) files
  #
  DATA(BINARY) test_obs.cbc
  DATA test_obs.hds
  DATA ibound.out
  #
  # Output: CSV files for single observations
  DATA test_obs.chd.csv
  DATA test_obs.ghb.csv
  DATA test_obs.head.csv
  DATA test_obs.intercell_flow_1.csv
  DATA test_obs.intercell_flow_2.csv
  DATA test_obs.riv.csv
  #
  # Output: CSV files for continuous observations
  DATA test_obs.chd_flows.csv
  DATA test_obs.ghb_flows.csv
  DATA test_obs.head_hydrographs.csv
  DATA test_obs.intercell_flows.csv
  DATA test_obs.riv_flows.csv
END OUTPUT_FILES

