begin options
  SAVE_FLOWS
  #STORAGECOEFFICIENT uncomment if SS is entered as storage coefficient
  NEWTON
end options

begin stodata
  iconvert
    constant 1
  ss
    constant 1.0e-5
  sy
    constant 0.2
end stodata

begin period 1
  steady-state
end period 1

begin period 2
  transient
end period 2
