#option block.  Note -- no comments allowed on aux line
begin options
  PACKAGENAME 'wells near river' (16 character limit)
  PRINT_INPUT (echo input to listing file)
  PRINT_FLOWS  (print the flows to the listing file)
  SAVE_FLOWS  test_maw.cbc (file for binary flow information; must be opened using DATA(BINARY))
  BOUNDNAMES
  TimeSeriesFile  well-1_rate.ts
  TimeSeriesFile  well-2_rate.ts
end options

begin dimensions
  MAXBOUND 5
end dimensions

begin period 2
#        k         i         j      flow      
         2         3         4   well_1_rate   well_1
         2         8         4   well_2_rate   well_2
         2         4         6     -10.0      
         2         5         8     -20.0      
         2         2         9     -40.0      
end period

begin period 3
#        k         i         j      flow      
         1         2         3     -50.0      
         2         3         4   well_1_rate   well_1
         2         8         4   well_2_rate   well_2
end period

begin period 4
#        k         i         j      flow      
         2         8         4   well_2_rate   well_2
         2         3         4   well_1_rate   well_1
end period

begin period 6
end period
