BEGIN OPTIONS
  PACKAGENAME SFR
  PRINT_FLOWS
  UNIT_CONVERSION 1.486
  TimeSeriesFile sfr_inflow.ts
  print_input
END OPTIONS

#dimension block is required
BEGIN DIMENSIONS
  MAXBOUND 36
END DIMENSIONS

begin reaches
#rch    k    i    j   length width      slope      sbot bthick      hk rough nconn ustrf ndiv
   1    1    1    1   4500.  12     8.677E-04 1093.0430    3.0 0.00003  0.03     1   1.0    0
   2    1    2    2   7000.  12     8.677E-04 1088.0570    3.0 0.00003  0.03     2   1.0    0
   3    1    3    3   6000.  12     8.677E-04 1082.4170    3.0 0.00003  0.03     2   1.0    0 
   4    1    3    4   5550.  12     8.677E-04 1077.4100    3.0 0.00003  0.03     3   1.0    1
   5    1    4    5   6500.  12     9.434E-04 1071.9351    3.0 0.00003  0.03     3   0.5    0
   6    1    5    6   5000.  12     9.434E-04 1066.5126    3.0 0.00003  0.03     2   1.0    0
   7    1    6    6   5000.  12     9.434E-04 1061.7933    3.0 0.00003  0.03     2   1.0    0
   8    1    7    6   5000.  12     9.434E-04 1057.0714    3.0 0.00003  0.03     2   1.0    0
   9    1    8    6   5000.  12     9.434E-04 1052.3600    3.0 0.00003  0.03     3   1.0    0
  10    1    3    5   5000.  9.636  5.455E-04 1073.6362    2.0 0.00003  0.03     3   0.5    0
  11    1    3    6   5000.  8.909  5.455E-04 1070.9049    2.0 0.00003  0.03     2   1.0    0
  12    1    3    7   4500.  8.218  5.455E-04 1068.3227    2.0 0.00003  0.03     2   1.0    0
  13    1    4    8   6000.  7.455  5.455E-04 1065.4508    2.0 0.00003  0.03     2   1.0    0
  14    1    5    8   5000.  6.655  5.455E-04 1062.4575    2.0 0.00003  0.03     2   1.0    0  
  15    1    6    8   2000.  6.145  5.455E-04 1060.5453    2.0 0.00003  0.03     3   1.0    0
  16    1    5   10   2500.  10     1.818E-03 1077.7290    3.0 0.00003  0.03     1   1.0    0  
  17    1    5    9   5000.  10     1.818E-03 1070.9130    3.0 0.00003  0.03     2   1.0    0  
  18    1    6    8   3500.  10     1.818E-03 1063.1779    3.0 0.00003  0.03     3   1.0    0  
  19    1    6    8   4000.  15     1.000E-03 1057.9980    3.0 0.00003  0.03     3   1.0    0  
  20    1    7    7   5000.  15     1.000E-03 1053.4998    3.0 0.00003  0.03     2   1.0    0  
  21    1    8    7   3500.  15     1.000E-03 1049.2459    3.0 0.00003  0.03     2   1.0    0  
  22    1    8    6   2500.  15     1.000E-03 1046.2463    3.0 0.00003  0.03     3   1.0    0  
  23    1    9    6   5000.  12     9.091E-04 1042.7300    3.0 0.00003  0.03     3   1.0    0  
  24    1   10    7   5000.  12     9.091E-04 1038.1841    3.0 0.00003  0.03     2   1.0    0  
  25    1   11    7   5000.  12     9.091E-04 1033.6409    3.0 0.00003  0.03     2   1.0    0  
  26    1   12    7   5000.  12     9.091E-04 1029.0931    3.0 0.00003  0.03     2   1.0    0  
  27    1   13    7   2000.  12     9.091E-04 1025.9111    3.0 0.00003  0.03     3   1.0    0  
  28    1   14    9   5000.  55     9.677E-04 1037.5840    3.0 0.00006  0.025    1   1.0    0  
  29    1   13    8   5500.  55     9.677E-04 1032.4990    3.0 0.00006  0.025    2   1.0    0  
  30    1   13    7   5000.  55     9.677E-04 1027.4150    3.0 0.00006  0.025    3   1.0    0  
  31    1   13    6   5000.  40     1.250E-03 1021.8740    3.0 0.00006  0.025    3   1.0    0  
  32    1   13    5   5000.  40     1.250E-03 1015.6210    3.0 0.00006  0.025    2   1.0    0  
  33    1   13    4   5000.  40     1.250E-03 1009.3760    3.0 0.00006  0.025    2   1.0    0  
  34    1   13    3   5000.  40     1.250E-03 1003.1250    3.0 0.00006  0.025    2   1.0    0  
  35    1   13    2   5000.  40     1.250E-03 996.8750     3.0 0.00006  0.025    2   1.0    0  
  36    1   13    1   3000.  40     1.250E-03 991.8750     3.0 0.00006  0.025    1   1.0    0
end reaches

begin reach_connectivity
  1  -2
  2   1  -3
  3   2  -4
  4   3  -5 -10
  5   4  10  -6
  6   5  -7
  7   6  -8
  8   7  -9
  9   8  22 -23
 10   4   5 -11
 11  10 -12
 12  11 -13
 13  12 -14
 14  13 -15
 15  14  18 -19
 16 -17
 17  16 -18
 18  17  15 -19
 19  15  18 -20
 20  19 -21
 21  20 -22
 22  21   9 -23
 23   9  22 -24
 24  23 -25
 25  24 -26
 26  25 -27
 27  26  30 -31
 28 -29
 29  28 -30
 30  29  27 -31
 31  27  30 -32
 32  31 -33
 33  32 -34
 34  33 -35
 35  34 -36
 36  35
end reach_connectivity  

begin reach_diversions
# ireach idivno ireach2 iprior
       4      1      10      0
end reach_diversions

begin period 1  
  sfr  1 inflow inflow_1
  sfr 16 inflow inflow_2
  sfr 28 inflow inflow_3
  sfr  4 diversion 1 10.
end period   

