#option block.  Note -- no comments allowed on aux line
begin options
end options

begin stodata
  iconvert structured
    constant 1
  ss structured
    constant 1.e-6
  sy structured
    INTERNAL      0.2    (FREE)    0            Sy
     1.0 1.0 0.0 0.0 0.0 0.0 0.0 0.0 0.0 0.0
     0.5 1.0 1.0 0.0 0.0 0.5 0.5 0.5 0.0 0.0
     0.0 0.5 1.0 1.0 0.5 0.5 0.5 0.5 0.0 0.0
     0.5 0.5 0.5 1.0 1.0 1.0 0.5 0.5 0.5 0.0
     0.5 0.5 0.5 1.0 1.0 1.0 1.0 1.0 1.0 1.0
     0.5 0.5 0.5 1.0 1.0 1.0 1.0 1.0 0.5 0.5
     0.5 0.5 0.5 1.0 1.0 1.0 1.0 1.0 0.5 0.0
     0.0 0.5 0.5 1.0 1.0 1.0 1.0 0.5 0.5 0.0
     0.0 0.5 0.5 1.0 1.0 1.0 1.0 0.5 0.5 0.0
     0.0 0.5 0.5 1.0 1.0 1.0 1.0 0.5 0.5 0.5
     0.0 0.5 0.5 1.0 1.0 1.0 1.0 0.5 0.5 0.0
     0.5 0.5 1.0 1.0 1.0 1.0 1.0 0.5 0.5 0.0
     1.0 1.0 1.0 1.0 1.0 1.0 1.0 1.0 1.0 0.0
     0.0 0.5 0.5 0.5 0.5 0.5 0.5 0.5 1.0 0.0
     0.0 0.0 0.5 0.5 0.5 0.5 0.0 0.0 0.0 0.0
end stodata
