begin options
  IHDWET 0 (0 or not 0)
  HDRY 7000.00
  HNOFLO 6999.00
end options
#
begin npfdata
  icelltype structured
    constant 1
  hk structured
    INTERNAL   2.000E-04 (FREE)    0            HY layer  1
     10.0 10.0  0.0  0.0  0.0  0.0  0.0  0.0  0.0  0.0
      2.0 10.0 10.0  0.0  0.0  2.0  2.0  2.0  0.0  0.0
      0.0  2.0 10.0 10.0  2.0  2.0  2.0  2.0  0.0  0.0
      2.0  2.0  2.0 10.0 10.0 10.0  2.0  2.0  2.0  0.0
      2.0  2.0  2.0 10.0 10.0 10.0 10.0 10.0 10.0 10.0
      2.0  2.0  2.0 10.0 10.0 10.0 10.0 10.0  2.0  2.0
      2.0  2.0  2.0 10.0 10.0 10.0 10.0 10.0  2.0  0.0
      0.0  2.0  2.0 10.0 10.0 10.0 10.0  2.0  2.0  0.0
      0.0  2.0  2.0 10.0 10.0 10.0 10.0  2.0  2.0  0.0
      0.0  2.0  2.0 10.0 10.0 10.0 10.0  2.0  2.0  2.0
      0.0  2.0  2.0 10.0 10.0 10.0 10.0  2.0  2.0  0.0
      2.0  2.0 10.0 10.0 10.0 10.0 10.0  2.0  2.0  0.0
     10.0 10.0 10.0 10.0 10.0 10.0 10.0 10.0 10.0  0.0
      0.0  2.0  2.0  2.0  2.0  2.0  2.0  2.0 10.0  0.0
      0.0  0.0  2.0  2.0  2.0  2.0  0.0  0.0  0.0  0.0
  vk structured
    constant 1.
end npfdata

