BEGIN OPTIONS
  HIGHEST_ACTIVE
  SAVE_FLOWS
  PACKAGENAME RECHARGE
END OPTIONS

#dimension block is required
BEGIN DIMENSIONS
  MAXBOUND 150
END DIMENSIONS

BEGIN PERIOD 1
  NLARRAY
    constant 1
  RECHARGE
    INTERNAL   5.000E-10 (FREE)    0    RECH
     0.5 2.0 0.0 0.0 0.0 0.0 0.0 0.0 0.0 0.0
     2.0 0.5 2.0 0.0 0.0 8.0 8.0 8.0 0.0 0.0
     0.0 2.0 0.5 2.0 2.0 0.5 0.5 0.5 0.0 0.0
     8.0 0.5 0.5 0.5 0.5 0.5 0.5 0.5 2.0 0.0
     8.0 0.5 0.5 0.5 0.5 0.5 0.5 0.5 0.5 0.5
     2.0 0.5 0.5 0.5 0.5 0.5 0.5 0.5 0.5 2.0
     2.0 0.5 0.5 0.5 0.5 0.5 0.5 0.5 2.0 0.0
     0.0 2.0 0.5 0.5 0.5 0.5 0.5 0.5 2.0 0.0
     0.0 2.0 0.5 0.5 0.5 0.5 0.5 0.5 2.0 0.0
     0.0 2.0 0.5 0.5 0.5 0.5 0.5 0.5 0.5 8.0
     0.0 2.0 0.5 0.5 0.5 0.5 0.5 0.5 2.0 0.0
     2.0 0.5 0.5 0.5 0.5 0.5 0.5 0.5 2.0 0.0
     0.5 0.5 0.5 0.5 0.5 0.5 0.5 0.5 2.0 0.0
     0.0 0.5 0.5 0.5 0.5 0.5 2.0 2.0 0.5 0.0
     0.0 0.0 2.0 2.0 2.0 2.0 0.0 0.0 0.0 0.0

END PERIOD
