BEGIN OPTIONS
END OPTIONS

BEGIN TIMING
  TDIS simulation.tdis
END TIMING

BEGIN MODELS
  #modeltype      namefile          modelname
         GWF    test_ts_many.nam    GWF_1
END MODELS

BEGIN EXCHANGES
END EXCHANGES

BEGIN SOLUTION_GROUP 1
  MXITER 1
  NUMERICAL test_ts_many.sms GWF_1
END SOLUTION_GROUP
