begin options
end options

begin PERIOD 1
  BUDGET print last
end period

begin period 2
  budget print frequency 200
end period
