begin options
end options
#
begin npfdata
  icelltype structured
    constant 0
  hk structured
    constant 2.0
  vk
    constant 0.1
end npfdata
