begin options
end options

begin icdata
  strt structured
    CONSTANT   110.0  Initial Head layer   1
end icdata
