begin options
	PRINT_OPTION 0
end options

begin nonlinear
	outer_hclose 1.e-2
	outer_maximum 100
	under_relaxation none
end nonlinear

begin linear
	inner_hclose 1.0e-2
	inner_rclose 1.0e-2
	inner_maximum 10
	linear_acceleration cg
	scaling_method none
	REORDERING_METHOD none
	relaxation_factor 0.97
end linear
