begin options
  digits 6
  structured
end options
# Blocks defining continuous observations

begin continuous head_hydrographs.csv
  h1-300k-4        head  1  3000  5      # heads at lay 1 row 3,000 col 4
  h1-600k-4        head  1  6000  5      # heads at lay 1 row 6,000 col 4
end continuous
