begin options
  PACKAGENAME 'Constant Heads'
end options

begin dimensions
  MAXBOUND 8
end dimensions

begin period 1
# L    R    C    head
  1    1    1     0.0
  1    1  250     0.0
  1    1  500     0.0
  1  250    1     0.0
  1  250  500     0.0
  1  500    1     0.0
  1  500  250     0.0
  1  500  500     0.0
end period
