BEGIN OPTIONS
  PACKAGENAME RECHARGE
END OPTIONS

#dimension block is required
BEGIN DIMENSIONS
  MAXBOUND 100000
END DIMENSIONS

BEGIN PERIOD 1
  NLARRAY
    CONSTANT 1
  RECHARGE
    constant 0.00020
END PERIOD
