BEGIN OPTIONS
END OPTIONS

BEGIN INPUT_FILES
  IC8   test_ts_many.ic    
  NPF8  test_ts_many.npf     
  CHD8  test_ts_many.chd     
#  RCH8  test_ts_many.rch     
  OC8   test_ts_many.oc      
  DIS8  test_ts_many.dis     
  STO8  test_ts_many.sto     
END INPUT_FILES

BEGIN OUTPUT_FILES
  LIST  test_ts_many.lst    
END OUTPUT_FILES


