BEGIN OPTIONS
  LENGTH_UNITS feet
END OPTIONS

BEGIN DIMENSIONS
  NLAY 1
  NROW 500
  NCOL 500
END DIMENSIONS

BEGIN disdata
  delr
    CONSTANT   1000.0  DELR
  delc
    CONSTANT   1000.0  DELC
  top
    CONSTANT   -100.0  TOP of system          
  botm structured
   CONSTANT    -500.0  Layer BOTM layer   1
end disdata
