begin options
end options

begin icdata
  strt structured
    CONSTANT   0.0  Initial Head layer   1
end icdata
