begin options
  precision single
  digits 10
  structured
end options

begin single ghb_obs.csv
  gh1_7_1_1.0   ghb   1.0  1  7  1
  gh2upper1.0   ghb   1.0  ghb2_upper
  gh2upper1.0   ghb   1.0  ghb2_lower
  gh1_7_1_1.2   ghb   1.2  1  7  1
  gh2upper1.2   ghb   1.2  ghb2_upper
  gh2upper1.2   ghb   1.2  ghb2_lower
  gh1_7_1_1.4   ghb   1.4  1  7  1
  gh2upper1.4   ghb   1.4  ghb2_upper
  gh2upper1.4   ghb   1.4  ghb2_lower
  gh1_7_1_1.6   ghb   1.6  1  7  1
  gh2upper1.6   ghb   1.6  ghb2_upper
  gh2upper1.6   ghb   1.6  ghb2_lower
  gh1_7_1_1.8   ghb   1.8  1  7  1
  gh2upper1.8   ghb   1.8  ghb2_upper
  gh2upper1.8   ghb   1.8  ghb2_lower
  gh1_7_1_2.0   ghb   2.0  1  7  1
  gh2upper2.0   ghb   2.0  ghb2_upper
  gh2upper2.0   ghb   2.0  ghb2_lower
end single

begin continuous ghb_flows.csv
  ghb1-3-1       ghb 1 3 1
  ghb1-7-1       ghb 1 7 1      
end continuous
