begin options
  precision single
  digits 10
  structured
  external obs_file_1
end options

#
# Blocks defining single observations
#

# for structured option
begin single intercell_flow_obs1.csv
  icf1_1.0  intercell-flow  1.0  1 4 7  1 4 8  # intercell flow between node 52 (1,4,7) and node 53 (1,4,8) (reduced: 43, 44)
  icf1_1.2  intercell-flow  1.2  1 4 7  1 4 8  # intercell flow between node 52 (1,4,7) and node 53 (1,4,8)
  icf1_1.4  intercell-flow  1.4  1 4 7  1 4 8  # intercell flow between node 52 (1,4,7) and node 53 (1,4,8)
  icf1_1.6  intercell-flow  1.6  1 4 7  1 4 8  # intercell flow between node 52 (1,4,7) and node 53 (1,4,8)
  icf1_1.8  intercell-flow  1.8  1 4 7  1 4 8  # intercell flow between node 52 (1,4,7) and node 53 (1,4,8)
  icf1_2.0  intercell-flow  2.0  1 4 7  1 4 8  # intercell flow between node 52 (1,4,7) and node 53 (1,4,8)
end single

# for unstructured option
begin single intercell_flow_obs2.csv
  icf2_1.0  intercell-flow  1.0  1 4 7  1 5 7  # intercell flow between node 67 (1,4,7) and node 82 (1,5,7)
  icf2_1.2  intercell-flow  1.2  1 4 7  1 5 7  # intercell flow between node 67 (1,4,7) and node 82 (1,5,7)
  icf2_1.4  intercell-flow  1.4  1 4 7  1 5 7  # intercell flow between node 67 (1,4,7) and node 82 (1,5,7)
  icf2_1.6  intercell-flow  1.6  1 4 7  1 5 7  # intercell flow between node 67 (1,4,7) and node 82 (1,5,7)
  icf2_1.8  intercell-flow  1.8  1 4 7  1 5 7  # intercell flow between node 67 (1,4,7) and node 82 (1,5,7)
  icf2_2.0  intercell-flow  2.0  1 4 7  1 5 7  # intercell flow between node 67 (1,4,7) and node 82 (1,5,7)
end single

#
# Blocks defining continuous observations
#

# for structured option
begin continuous head_hydrographs.csv
#begin continuous head_hydrographs.bsv
  h1-7-5        head  1  7  5      # heads at lay 1 row 7 col 5
  h2-8-9        head  2  8  9      # heads at lay 2 row 8 col 9
end continuous

# for structured option
begin continuous intercell_flows.csv
#begin continuous intercell_flows.bsv
  icf1      intercell-flow    1 4 7  1 4 8  # intercell flow between node 67 (1,4,7) and node 68 (1,4,8)
  icf2      intercell-flow    1 4 7  1 5 7  # intercell flow between node 67 (1,4,7) and node 82 (1,5,7)
end continuous

