begin options
  SAVE_FLOWS
  REWET (if keyword found, turn on rewetting) 
  IWETIT 1 iwetit (default is 1 if not specified)
  WETFCT 1.
  IHDWET 0 (0 or not 0)
  HDRY 777.77 hdry
  HNOFLO -999.
#  funkyunsupportedoption
end options
#
begin npfdata
  icelltype structured
    constant 1
	constant 0
  wetdry structured
    internal 1. (free) 1
 2.000000E+00  2.000000E+00  2.000000E+00  2.000000E+00  2.000000E+00 2.000000E+00 2.000000E+00 2.000000E+00 -2.000000E+00 -2.000000E+00
-2.000000E+00 -2.000000E+00 -2.000000E+00 -2.000000E+00 -2.000000E+00
 2.000000E+00  2.000000E+00  2.000000E+00  2.000000E+00  2.000000E+00 2.000000E+00 2.000000E+00 2.000000E+00 -2.000000E+00 -2.000000E+00
-2.000000E+00 -2.000000E+00 -2.000000E+00 -2.000000E+00 -2.000000E+00
 2.000000E+00  2.000000E+00  2.000000E+00 -2.000000E+00  2.000000E+00 2.000000E+00 2.000000E+00 2.000000E+00 -2.000000E+00 -2.000000E+00
-2.000000E+00 -2.000000E+00 -2.000000E+00 -2.000000E+00 -2.000000E+00
 2.000000E+00  2.000000E+00  2.000000E+00  2.000000E+00  2.000000E+00 2.000000E+00 2.000000E+00 2.000000E+00 -2.000000E+00 -2.000000E+00
-2.000000E+00 -2.000000E+00 -2.000000E+00 -2.000000E+00 -2.000000E+00
 2.000000E+00  2.000000E+00  2.000000E+00  2.000000E+00  2.000000E+00 2.000000E+00 2.000000E+00 2.000000E+00 -2.000000E+00 -2.000000E+00
-2.000000E+00 -2.000000E+00 -2.000000E+00 -2.000000E+00 -2.000000E+00
 2.000000E+00  2.000000E+00  2.000000E+00  2.000000E+00  2.000000E+00 2.000000E+00 2.000000E+00 2.000000E+00 -2.000000E+00 -2.000000E+00
-2.000000E+00 -2.000000E+00 -2.000000E+00 -2.000000E+00 -2.000000E+00
 2.000000E+00  2.000000E+00  2.000000E+00  2.000000E+00  2.000000E+00 2.000000E+00 2.000000E+00 2.000000E+00 -2.000000E+00 -2.000000E+00
-2.000000E+00 -2.000000E+00 -2.000000E+00 -2.000000E+00 -2.000000E+00
 2.000000E+00  2.000000E+00  2.000000E+00 -2.000000E+00  2.000000E+00 2.000000E+00 2.000000E+00 2.000000E+00 -2.000000E+00 -2.000000E+00
-2.000000E+00 -2.000000E+00 -2.000000E+00 -2.000000E+00 -2.000000E+00
 2.000000E+00  2.000000E+00  2.000000E+00  2.000000E+00  2.000000E+00 2.000000E+00 2.000000E+00 2.000000E+00 -2.000000E+00 -2.000000E+00
-2.000000E+00 -2.000000E+00 -2.000000E+00 -2.000000E+00 -2.000000E+00
 2.000000E+00  2.000000E+00  2.000000E+00  2.000000E+00  2.000000E+00 2.000000E+00 2.000000E+00 2.000000E+00 -2.000000E+00 -2.000000E+00
-2.000000E+00 -2.000000E+00 -2.000000E+00 -2.000000E+00 -2.000000E+00
	constant 0.
  hk structured
    constant 10.
	constant 5.
  vk
    constant 0.1
end npfdata
