BEGIN OPTIONS
  AUX var1 var2
  HIGHEST_ACTIVE (HIGHEST_ACTIVE, TOP_LAYER or IRECH)
#  PRINT_INPUT
#  PRINT_FLOWS
  SAVE_FLOWS
  PACKAGENAME RECHARGE
END OPTIONS

dimension block is required
BEGIN DIMENSIONS
  MAXBOUND 150
END DIMENSIONS

BEGIN PERIOD 1
  NLARRAY
    constant 1
  RECHARGE
    constant 0.0040
  var1
    constant 100.
END PERIOD
