BEGIN OPTIONS

END OPTIONS

BEGIN DIMENSIONS
  NLAY 2
  NROW 10
  NCOL 15
END DIMENSIONS

BEGIN disdata
  delr
    CONSTANT   5.000000E+02  DELR
  delc
    CONSTANT   5.000000E+02  DELC
  top
    CONSTANT   1.500000E+02  TOP of system          
  botm structured
    CONSTANT   5.000000E+01  Layer BOTM layer   1
    CONSTANT  -5.000000E+01  Layer BOTM layer   2
  idomain structured
    internal 1 (free) 2
 1 1 0 0 0 0 0 1 1 1 1 1 1 1 1
 1 1 1 0 0 0 1 1 1 1 1 1 1 1 1
 1 1 1 1 0 1 1 1 1 1 1 1 1 1 1
 1 1 1 1 1 1 1 1 1 1 1 1 1 1 1
 1 1 1 1 1 1 1 1 1 1 1 1 1 1 1
 1 1 1 1 1 1 1 1 1 1 1 1 1 1 1
 1 1 1 1 1 1 1 1 1 1 1 1 1 1 1
 1 1 1 1 1 1 1 1 1 1 1 1 1 1 1
 1 1 1 1 1 1 1 1 1 1 1 1 1 1 1
 1 1 1 1 1 1 1 1 1 1 1 1 1 1 1
    internal 1 (free) 2
 1 1 0 0 0 0 0 1 1 1 1 1 1 1 1
 1 1 1 0 0 0 1 1 1 1 1 1 1 1 1
 1 1 1 1 0 1 1 1 1 1 1 1 1 1 1
 1 1 1 1 1 1 1 1 1 1 1 1 1 1 1
 1 1 1 1 1 1 1 1 1 1 1 1 1 1 1
 1 1 1 1 1 1 1 1 1 1 1 1 1 1 1
 1 1 1 1 1 1 1 1 1 1 1 1 1 1 1
 1 1 1 1 1 1 1 1 1 1 1 1 1 1 1
 1 1 1 1 1 1 1 1 1 1 1 1 1 1 1
 1 1 1 1 1 1 1 1 1 1 1 1 1 1 1
end disdata


    2   10   15  0  NLAY,NROW,NCOL,LENUNI
CONSTANT   5.000000E+02  DELR
CONSTANT   5.000000E+02  DELC
CONSTANT   1.500000E+02  TOP of system          
CONSTANT   5.000000E+01  Layer BOTM layer   1
CONSTANT  -5.000000E+01  Layer BOTM layer   2




