BEGIN OPTIONS
END OPTIONS

BEGIN INPUT_FILES
IC8  test4ts.ic    
NPF8  test4ts.npf     
CHD8  test4ts.chd     
WEL8  test4ts.wel     
#WEL8  test4ts-no-ts.wel     
#RIV8  test4ts-no-ts.riv     
#RIV8  test4ts.riv     
RIV8  test4ts-example.riv     
RCH8  test4ts.rch     
OC8   test4ts.oc      
#OC8   test4ts-brief.oc      
DIS8  test4ts.dis     
GHB8  test4ts.ghb     
STO8  test4ts.sto     
#EVT  test4ts.evt     
OBS8  test4ts.obs     
END INPUT_FILES

BEGIN OUTPUT_FILES
LIST  test4ts.lst    
#
# Output DATA and DATA(BINARY) files
#
DATA(BINARY) test4ts.cbc    
#DATA(BINARY) test4ts.hds    
DATA test4ts.hds            
DATA ibound.out             
#
# Output: single observations
DATA head_obs.csv          
DATA riv_obs.csv           
DATA ghb_obs.csv           
#DATA(BINARY) head_obs.bsv  
#DATA(BINARY) riv_obs.bsv   
#
# Output: continuous observations
DATA ghb_flows.csv         
DATA head_hydrographs.csv  
DATA riv_flows.csv         
DATA intercell_flow_obs1.csv       
DATA intercell_flow_obs2.csv       
DATA intercell_flows.csv           
DATA chd_flows.csv                 
DATA chd_obs.csv                   
#DATA(BINARY) ghb_flows.bsv            
#DATA(BINARY) head_hydrographs.bsv     
#DATA(BINARY) riv_flows.bsv            
#DATA(BINARY) intercell_flow_obs1.bsv  
#DATA(BINARY) intercell_flow_obs2.bsv  
#DATA(BINARY) intercell_flows.bsv      
END OUTPUT_FILES


