BEGIN OPTIONS
END OPTIONS

BEGIN INPUT_FILES
  IC8  test4ts.ic    
  NPF8  test4ts.npf     
  CHD8  test4ts.chd     
  WEL8  test4ts.wel     
  RIV8  test4ts-example.riv     
  RCH8  test4ts.rch     
  OC8   test4ts.oc      
  DIS8  test4ts.dis     
  GHB8  test4ts.ghb     
  STO8  test4ts.sto     
  OBS8  test4ts.obs     
END INPUT_FILES

BEGIN OUTPUT_FILES
  LIST  test4ts.lst    
  #
  # Output DATA and DATA(BINARY) files
  #
  DATA(BINARY) test4ts.cbc    
  DATA test4ts.hds            
  DATA ibound.out             
  #
  # Output: single observations
  DATA head_obs.csv          
  DATA intercell_flow_obs1.csv       
  DATA intercell_flow_obs2.csv       
  DATA chd_obs.csv                   
  DATA ghb_obs.csv           
  DATA riv_obs.csv           
  #
  # Output: continuous observations
  DATA head_hydrographs.csv  
  DATA intercell_flows.csv           
  DATA chd_flows.csv                 
  DATA ghb_flows.csv         
  DATA riv_flows.csv         
END OUTPUT_FILES


