#option block.  Note -- no comments allowed on aux line
begin options
  PACKAGENAME 'River' (16 character limit)
  PRINT_INPUT (echo input to listing file)
  PRINT_FLOWS (print the flows to the listing file)
  SAVE_FLOWS  test4ts.cbc (file for binary flow information; must be opened using DATA(BINARY))
  BOUNDNAMES  (specify name for any boundary specified as an observation boundary, if cell node or i,j,k is not used)
  OBS         test4_ts.riv.obs
end options

begin dimensions
  MAXBOUND 10
end dimensions

begin period 1
#    layer       row       col    stage        cond       rbot  BoundName
         1         1        15  river_stage    10000.      100.  
         1         2        15  river_stage    10000.      100.  riv2
         1         3        15  river_stage    10000.      100.  riv3
         1         4        15  river_stage    10000.      100.
         1         5        15  river_stage    10000.      100.
         1         6        15  river_stage    10000.      100.
         1         7        15  river_stage    10000.      100.  rivX
         1         8        15  river_stage    10000.      100.  rivX
         1         9        15  river_stage    10000.      100.  rivX
         1        10        15  river_stage    10000.      100.
end period

begin period 3
#    layer       row       col    stage        cond       rbot  BoundName
         1         1        15  river_stage    10000.      100.  
         1         2        15  river_stage    10000.      100.  riv2
         1         3        15  river_stage    10000.      100.  riv3
         1         4        15  river_stage    10000.      100.
         1         5        15  river_stage    10000.      100.
         1         6        15  river_stage    10000.      100.
         1         7        15  river_stage    10000.      100.  rivX
         1         8        15  river_stage    10000.      100.  rivX
         1         9        15  river_stage    10000.      100.  rivX
         1        10        15  river_stage    10000.      100.
end period
begin period 4
#    layer       row       col    stage        cond       rbot  BoundName
         1         1        15  river_stage    10000.      100.  
         1         2        15  river_stage    10000.      100.  riv2
         1         3        15  river_stage    10000.      100.  riv3
         1         4        15  river_stage    10000.      100.
         1         5        15  river_stage    10000.      100.
         1         6        15  river_stage    10000.      100.
         1         7        15  river_stage    10000.      100.  rivX
         1         8        15  river_stage    10000.      100.  rivX
         1         9        15  river_stage    10000.      100.  rivX
         1        10        15  river_stage    10000.      100.
end period
begin period 5
#    layer       row       col    stage        cond       rbot  BoundName
         1         1        15  river_stage    10000.      100.  
         1         2        15  river_stage    10000.      100.  riv2
         1         3        15  river_stage    10000.      100.  riv3
         1         4        15  river_stage    10000.      100.
         1         5        15  river_stage    10000.      100.
         1         6        15  river_stage    10000.      100.
         1         7        15  river_stage    10000.      100.  rivX
         1         8        15  river_stage    10000.      100.  rivX
         1         9        15  river_stage    10000.      100.  rivX
         1        10        15  river_stage    10000.      100.
end period

