begin options
  precision single
  digits 10
  structured
end options

# Blocks defining single observations

begin single head_obs.csv
  h1_day1     head   1.0  2  3  6    # head obs at layer 2 row 3 col 6
  h1_day2     head   2.0  2  3  6    # head obs at layer 2 row 3 col 6
  h1_day3.0   head   3.0  2  3  6    # head obs at layer 2 row 3 col 6
  h1_day4.1   head   4.1  2  3  6    # head obs at layer 2 row 3 col 6
  h1_day5.6   head   5.6  2  3  6    # head obs at layer 2 row 3 col 6
  h1_day10.8  head  10.8  2  3  6    # head obs at layer 2 row 3 col 6
end single

begin single intercell_flow_obs1.csv
  icf1_1.0  intercell-flow  1.0  1 4 7  1 4 8  # intercell flow between node 67 (1,4,7) and node 68 (1,4,8)
  icf1_2.0  intercell-flow  2.0  1 4 7  1 4 8  # intercell flow between node 67 (1,4,7) and node 68 (1,4,8)
  icf1_3.0  intercell-flow  3.0  1 4 7  1 4 8  # intercell flow between node 67 (1,4,7) and node 68 (1,4,8)
  icf1_4.1  intercell-flow  4.1  1 4 7  1 4 8  # intercell flow between node 67 (1,4,7) and node 68 (1,4,8)
  icf1_5.6  intercell-flow  5.6  1 4 7  1 4 8  # intercell flow between node 67 (1,4,7) and node 68 (1,4,8)
  icf1_10.8 intercell-flow 10.8  1 4 7  1 4 8  # intercell flow between node 67 (1,4,7) and node 68 (1,4,8)
end single

begin single intercell_flow_obs2.csv
  icf2_1.0  intercell-flow  1.0  1 4 7  1 5 7  # intercell flow between node 67 (1,4,7) and node 82 (1,5,7)
  icf2_2.0  intercell-flow  2.0  1 4 7  1 5 7  # intercell flow between node 67 (1,4,7) and node 82 (1,5,7)
  icf2_3.0  intercell-flow  3.0  1 4 7  1 5 7  # intercell flow between node 67 (1,4,7) and node 82 (1,5,7)
  icf2_4.1  intercell-flow  4.1  1 4 7  1 5 7  # intercell flow between node 67 (1,4,7) and node 82 (1,5,7)
  icf2_5.6  intercell-flow  5.6  1 4 7  1 5 7  # intercell flow between node 67 (1,4,7) and node 82 (1,5,7)
  icf2_10.8 intercell-flow 10.8  1 4 7  1 5 7  # intercell flow between node 67 (1,4,7) and node 82 (1,5,7)
end single

# Blocks defining continuous observations

begin continuous head_hydrographs.csv
  h1-3-4        head  1  3  4      # heads at lay 1 row 3 col 4
  h2-6-4        head  2  6  4      # heads at lay 2 row 6 col 4
end continuous

begin continuous intercell_flows.csv
  icf1      intercell-flow    2 4 7  2 4 8  # intercell flow between node 67 (2,4,7) and node 68 (2,4,8)
  icf2      intercell-flow    2 4 7  2 5 7  # intercell flow between node 67 (2,4,7) and node 82 (2,5,7)
end continuous
