BEGIN OPTIONS
  HEAD PRINT FORMAT 4
  head save format (15f7.2) label
  HEAD SAVE file test4_ets_list.hds
  BUDGET SAVE FILE test4_ets_list.cbc
  ibound save format (15i2) label
  ibound save file ibound.out
END OPTIONS

BEGIN PERIOD 1
  HEAD PRINT FREQUENCY 1
  HEAD SAVE FREQUENCY 1
  BUDGET PRINT FREQUENCY 1
  BUDGET SAVE FREQUENCY 1
END PERIOD

BEGIN PERIOD 2
  HEAD PRINT LAST
  HEAD SAVE FREQUENCY 1
  BUDGET PRINT LAST
  BUDGET SAVE FREQUENCY 1
END PERIOD
