begin options
  precision single
  digits 10
  structured
end options

begin single riv_obs.csv
  rv1-4-15d1    riv   1.0  1  4 15  # river flow at layer 1 row 4 col 15
  rv1-4-15d2.0  riv   2.0  1  4 15  # river flow at layer 1 row 4 col 15
  rv1-4-15d3.0  riv   3.0  1  4 15  # river flow at layer 1 row 4 col 15
  rv1-4-15d4.1  riv   4.1  1  4 15  # river flow at layer 1 row 4 col 15
  rv1-4-15d5.6  riv   5.6  1  4 15  # river flow at layer 1 row 4 col 15
  rv1-4-15d10.8 riv  10.8  1  4 15  # river flow at layer 1 row 4 col 15
  riv2-10.8     riv  10.8  riv2     # river flow at river boundary "riv2"
  riv3-10.8     riv  10.8  riv3     # river flow at river boundary "riv3"
  rivX-10.8     riv  10.8  rivX     # sum of river flows at boundaries named "rivX"
  rv1-7-15d1    riv  10.8  1  7 15  # rivX, row 7
  rv1-8-15d1    riv  10.8  1  8 15  # rivX, row 8
  rv1-9-15d1    riv  10.8  1  9 15  # rivX, row 8
end single

begin continuous riv_flows.csv
  riv1-3-15      riv 1 3 15      # sum of flows for all riv cells at lay 2 row 3 col 15
  riv1-4-15      riv 1 4 15      # sum of flows for all riv cells at lay 2 row 4 col 15
  riv1-5-15      riv 1 5 15      # sum of flows for all riv cells at lay 2 row 5 col 15
end continuous
