begin options
  BUDGET SAVE FILE test4tas.cbc
  HEAD SAVE file test4tas.hds
  head print format columns 8 width 10 digits 5 fixed strip
  head save format columns 15 width 10 digits 4 label scientific
  drawdown print format columns 8 width 11 digits 4 exponential
  ibound save format columns 15 width 3 label
  ibound save file ibound.out
end options

begin period 1
  budget print all
  head print all
  budget save all
  head save all
  ibound save all
end period
