begin options
	PRINT_OPTION 0
end options

begin nonlinear
	outer_hclose 1.e-4
	outer_maximum 500 
	under_relaxation none
	linear_solver pcgu
end nonlinear

begin pcgu
	inner_hclose 1.0e-4
	inner_rclose 0.001
	inner_maximum 100
	linear_acceleration cg
	preconditioner milu0
	scaling_method none
	REORDERING_METHOD none
	relaxation_factor 0.97
end pcgu
