BEGIN OPTIONS

END OPTIONS

BEGIN DIMENSIONS
  NLAY 2
  NROW 10
  NCOL 15
END DIMENSIONS

BEGIN disdata
  delr
    CONSTANT   5.000000E+02  DELR
  delc
    CONSTANT   5.000000E+02  DELC
  top
    CONSTANT   1.500000E+02  TOP of system          
  botm structured
   CONSTANT   5.000000E+01  Layer BOTM layer   1
   CONSTANT  -5.000000E+01  Layer BOTM layer   2
end disdata
