BEGIN OPTIONS
  TIME_UNITS DAYS
END OPTIONS

BEGIN DIMENSIONS
  NPER 3
END DIMENSIONS

BEGIN STRESS_PERIODS
 #perlen nstp  tsmult
 1.0    1  1.0  SS  PERLEN,NSTP,TSMULT
 10.0  10  1.0  TR  PERLEN,NSTP,TSMULT
 10.0  10  1.0  TR  PERLEN,NSTP,TSMULT
END STRESS_PERIODS

