begin options
  precision single
  digits 10
  structured
  print_input
  external single_head.obs
  external single_riv.obs
  external single_ghb.obs
  external single_intercell.obs
  #external single_chd.obs
  external continuous_head.obs
  external continuous_riv.obs
  external continuous_ghb.obs
  external continuous_intercell.obs
  #external continuous_chd.obs
end options

begin single chd_obs.csv
  chdf1.0      chd-flow   1.0   chd_gp  # constant-head flow at chd_gp
  chdf2.0      chd-flow   2.0   chd_gp  # constant-head flow at chd_gp
  chdf2.5      chd-flow   2.5   chd_gp  # constant-head flow at chd_gp
  chdf3.0      chd-flow   3.0   chd_gp  # constant-head flow at chd_gp
  chdf8.0      chd-flow   8.0   chd_gp  # constant-head flow at chd_gp
  chdf10.0     chd-flow  10.0   chd_gp  # constant-head flow at chd_gp
  chdf11.0     chd-flow  11.0   chd_gp  # constant-head flow at chd_gp
  chd_1_4_1_2  chd-flow   2.0   1  4  1 
end single

begin continuous chd_flows.csv
  chdf_chd_gp      chd-flow    chd_gp  # constant-head flow
  chdc_1_4_1       chd-flow    1  4  1 
end continuous
