BEGIN OPTIONS
  TIME_UNITS DAYS
END OPTIONS

BEGIN DIMENSIONS
  NPER 6
END DIMENSIONS

BEGIN STRESS_PERIODS
 #perlen nstp  tsmult
 1.0    1  1.0  PERLEN,NSTP,TSMULT
 2.0   10  1.0  PERLEN,NSTP,TSMULT
 2.0   10  1.0  PERLEN,NSTP,TSMULT
 2.0   10  1.0  PERLEN,NSTP,TSMULT
 2.0   10  1.0  PERLEN,NSTP,TSMULT
 2.0   10  1.0  PERLEN,NSTP,TSMULT
END STRESS_PERIODS
