begin options
  PACKAGENAME 'River'
  PRINT_INPUT
  PRINT_FLOWS
  SAVE_FLOWS  test4ts.cbc
  BOUNDNAMES
  TIMESERIESFILE  riv_stage.ts
  OBS8            test4_ets_list.riv.obs
end options

begin dimensions
  #MAXBOUND 10
#  autodetect
end dimensions

begin period 1
#    layer       row       col    stage        cond       rbot  BoundName
         1         1        15  river_stage    10000.      100.  
         1         2        15  river_stage    10000.      100.  riv2
         1         3        15  river_stage    10000.      100.  riv3
         1         4        15  river_stage    10000.      100.
         1         5        15  river_stage    10000.      100.
         1         6        15  river_stage    10000.      100.
         1         7        15  river_stage    10000.      100.  rivX
         1         8        15  river_stage    10000.      100.  rivX
         1         9        15  river_stage    10000.      100.  rivX
         1        10        15  river_stage    10000.      100.
end period

begin period 3
#    layer       row       col    stage        cond       rbot  BoundName
         1         1        15  river_stage    10000.      100.  
         1         2        15  river_stage    10000.      100.  riv2
         1         3        15  river_stage    10000.      100.  riv3
         1         4        15  river_stage    10000.      100.
         1         5        15  river_stage    10000.      100.
         1         6        15  river_stage    10000.      100.
         1         7        15  river_stage    10000.      100.  rivX
         1         8        15  river_stage    10000.      100.  rivX
         1         9        15  river_stage    10000.      100.  rivX
         1        10        15  river_stage    10000.      100.
         2         1        15  river_stage    10000.      100.  
         2         2        15  river_stage    10000.      100.  riv2
         2         3        15  river_stage    10000.      100.  riv3
         2         4        15  river_stage    10000.      100.
         2         5        15  river_stage    10000.      100.
         2         6        15  river_stage    10000.      100.
         2         7        15  river_stage    10000.      100.  rivX
         2         8        15  river_stage    10000.      100.  rivX
         2         9        15  river_stage    10000.      100.  rivX
         2        10        15  river_stage    10000.      100.
end period
begin period 4
#    layer       row       col    stage        cond       rbot  BoundName
         1         1        15  river_stage    10000.      100.  
         1         2        15  river_stage    10000.      100.  riv2
         1         3        15  river_stage    10000.      100.  riv3
         1         4        15  river_stage    10000.      100.
         1         5        15  river_stage    10000.      100.
         1         6        15  river_stage    10000.      100.
         1         7        15  river_stage    10000.      100.  rivX
         1         8        15  river_stage    10000.      100.  rivX
         1         9        15  river_stage    10000.      100.  rivX
         1        10        15  river_stage    10000.      100.
end period
begin period 5
#    layer       row       col    stage        cond       rbot  BoundName
         1         1        15  river_stage    10000.      100.  
         1         2        15  river_stage    10000.      100.  riv2
         1         3        15  river_stage    10000.      100.  riv3
         1         4        15  river_stage    10000.      100.
         1         5        15  river_stage    10000.      100.
         1         6        15  river_stage    10000.      100.
         1         7        15  river_stage    10000.      100.  rivX
         1         8        15  river_stage    10000.      100.  rivX
         1         9        15  river_stage    10000.      100.  rivX
         1        10        15  river_stage    10000.      100.
end period

