begin options
  HEAD SAVE file test4_ets_list.hds
  BUDGET SAVE FILE test4_ets_list.cbc
  head print format 4
  head save format (15f7.2) label
  ibound save format (15i2) label
  ibound save file ibound.out
end options

begin PERIOD 1
  BUDGET PRINT all
  HEAD PRINT all
  BUDGET SAVE all
  HEAD SAVE all
end period
