BEGIN OPTIONS
  AUX var1 var2
  HIGHEST_ACTIVE
  PRINT_INPUT
  PRINT_FLOWS
  SAVE_FLOWS
  PACKAGENAME RECHARGE
END OPTIONS

#dimension block is required
BEGIN DIMENSIONS
#  MAXBOUND 150
END DIMENSIONS

BEGIN PERIOD 1
  NLARRAY
    CONSTANT 1
  RECHARGE
    constant 0.00020
  var1
    constant 100.
END PERIOD

BEGIN PERIOD 2
  RECHARGE
    constant 0.0030
END PERIOD