begin options
  SAVE_FLOWS
  #STORAGECOEFFICIENT uncomment if SS is entered as storage coefficient
end options

begin stodata
  iconvert
    constant 1
  ss
    constant 1.e-5
  sy
    constant 0.2
end stodata

begin period 1
  steady-state
end period

begin period 2
  transient
end period

