begin options
  save_FLOWS
  REWET (if keyword found, turn on rewetting) 
  IWETIT 1 iwetit (default is 1 if not specified)
  WETFCT 1.
  IHDWET 0 (0 or not 0)
  HDRY 777.77 hdry
end options
#
begin npfdata
  icelltype structured
    constant 1
    constant 0
  wetdry structured
    internal 1. (free) 1
 2.000000E+00  2.000000E+00  2.000000E+00  2.000000E+00  2.000000E+00 2.000000E+00 2.000000E+00 2.000000E+00 -2.000000E+00 -2.000000E+00
-2.000000E+00 -2.000000E+00 -2.000000E+00 -2.000000E+00 -2.000000E+00
 2.000000E+00  2.000000E+00  2.000000E+00  2.000000E+00  2.000000E+00 2.000000E+00 2.000000E+00 2.000000E+00 -2.000000E+00 -2.000000E+00
-2.000000E+00 -2.000000E+00 -2.000000E+00 -2.000000E+00 -2.000000E+00
 2.000000E+00  2.000000E+00  2.000000E+00 -2.000000E+00  2.000000E+00 2.000000E+00 2.000000E+00 2.000000E+00 -2.000000E+00 -2.000000E+00
-2.000000E+00 -2.000000E+00 -2.000000E+00 -2.000000E+00 -2.000000E+00
 2.000000E+00  2.000000E+00  2.000000E+00  2.000000E+00  2.000000E+00 2.000000E+00 2.000000E+00 2.000000E+00 -2.000000E+00 -2.000000E+00
-2.000000E+00 -2.000000E+00 -2.000000E+00 -2.000000E+00 -2.000000E+00
 2.000000E+00  2.000000E+00  2.000000E+00  2.000000E+00  2.000000E+00 2.000000E+00 2.000000E+00 2.000000E+00 -2.000000E+00 -2.000000E+00
-2.000000E+00 -2.000000E+00 -2.000000E+00 -2.000000E+00 -2.000000E+00
 2.000000E+00  2.000000E+00  2.000000E+00  2.000000E+00  2.000000E+00 2.000000E+00 2.000000E+00 2.000000E+00 -2.000000E+00 -2.000000E+00
-2.000000E+00 -2.000000E+00 -2.000000E+00 -2.000000E+00 -2.000000E+00
 2.000000E+00  2.000000E+00  2.000000E+00  2.000000E+00  2.000000E+00 2.000000E+00 2.000000E+00 2.000000E+00 -2.000000E+00 -2.000000E+00
-2.000000E+00 -2.000000E+00 -2.000000E+00 -2.000000E+00 -2.000000E+00
 2.000000E+00  2.000000E+00  2.000000E+00 -2.000000E+00  2.000000E+00 2.000000E+00 2.000000E+00 2.000000E+00 -2.000000E+00 -2.000000E+00
-2.000000E+00 -2.000000E+00 -2.000000E+00 -2.000000E+00 -2.000000E+00
 2.000000E+00  2.000000E+00  2.000000E+00  2.000000E+00  2.000000E+00 2.000000E+00 2.000000E+00 2.000000E+00 -2.000000E+00 -2.000000E+00
-2.000000E+00 -2.000000E+00 -2.000000E+00 -2.000000E+00 -2.000000E+00
 2.000000E+00  2.000000E+00  2.000000E+00  2.000000E+00  2.000000E+00 2.000000E+00 2.000000E+00 2.000000E+00 -2.000000E+00 -2.000000E+00
-2.000000E+00 -2.000000E+00 -2.000000E+00 -2.000000E+00 -2.000000E+00
	constant 0.
  hk structured
    constant 4.0
    constant 5.0e-1
  vk
    constant 0.01
end npfdata



 30 777.77 1 1.00E+00 1 0 0  IBCFCB,HDRY,IWDFLG,WETFCT,IWETIT,IHDWET,IKVFLAG
 1 0
CONSTANT   1.000000E+00  TRPY
CONSTANT   1.000000E+01  HY layer   1
CONSTANT   1.000000E-03  VCONT layer   1
INTERNAL   1.000000E+00 (10F13.0)    7  WETDRY layer   1
 2.000000E+00 2.000000E+00 2.000000E+00 2.000000E+00 2.000000E+00 2.000000E+00 2.000000E+00 2.000000E+00-2.000000E+00-2.000000E+00
-2.000000E+00-2.000000E+00-2.000000E+00-2.000000E+00-2.000000E+00
 2.000000E+00 2.000000E+00 2.000000E+00 2.000000E+00 2.000000E+00 2.000000E+00 2.000000E+00 2.000000E+00-2.000000E+00-2.000000E+00
-2.000000E+00-2.000000E+00-2.000000E+00-2.000000E+00-2.000000E+00
 2.000000E+00 2.000000E+00 2.000000E+00-2.000000E+00 2.000000E+00 2.000000E+00 2.000000E+00 2.000000E+00-2.000000E+00-2.000000E+00
-2.000000E+00-2.000000E+00-2.000000E+00-2.000000E+00-2.000000E+00
 2.000000E+00 2.000000E+00 2.000000E+00 2.000000E+00 2.000000E+00 2.000000E+00 2.000000E+00 2.000000E+00-2.000000E+00-2.000000E+00
-2.000000E+00-2.000000E+00-2.000000E+00-2.000000E+00-2.000000E+00
 2.000000E+00 2.000000E+00 2.000000E+00 2.000000E+00 2.000000E+00 2.000000E+00 2.000000E+00 2.000000E+00-2.000000E+00-2.000000E+00
-2.000000E+00-2.000000E+00-2.000000E+00-2.000000E+00-2.000000E+00
 2.000000E+00 2.000000E+00 2.000000E+00 2.000000E+00 2.000000E+00 2.000000E+00 2.000000E+00 2.000000E+00-2.000000E+00-2.000000E+00
-2.000000E+00-2.000000E+00-2.000000E+00-2.000000E+00-2.000000E+00
 2.000000E+00 2.000000E+00 2.000000E+00 2.000000E+00 2.000000E+00 2.000000E+00 2.000000E+00 2.000000E+00-2.000000E+00-2.000000E+00
-2.000000E+00-2.000000E+00-2.000000E+00-2.000000E+00-2.000000E+00
 2.000000E+00 2.000000E+00 2.000000E+00-2.000000E+00 2.000000E+00 2.000000E+00 2.000000E+00 2.000000E+00-2.000000E+00-2.000000E+00
-2.000000E+00-2.000000E+00-2.000000E+00-2.000000E+00-2.000000E+00
 2.000000E+00 2.000000E+00 2.000000E+00 2.000000E+00 2.000000E+00 2.000000E+00 2.000000E+00 2.000000E+00-2.000000E+00-2.000000E+00
-2.000000E+00-2.000000E+00-2.000000E+00-2.000000E+00-2.000000E+00
 2.000000E+00 2.000000E+00 2.000000E+00 2.000000E+00 2.000000E+00 2.000000E+00 2.000000E+00 2.000000E+00-2.000000E+00-2.000000E+00
-2.000000E+00-2.000000E+00-2.000000E+00-2.000000E+00-2.000000E+00
CONSTANT   5.000000E+02  TRAN layer   2
