begin options
  HEAD SAVE file bcf2ss.hds
  BUDGET SAVE FILE bcf2ss.cbc
  head print format 4
  head save format (15f7.2) label
  ibound save format (15i2) label
  ibound save file ibound.out
end options

BEGIN PERIOD 1
  BUDGET PRINT ALL
  BUDGET SAVE ALL
  HEAD PRINT ALL
  HEAD SAVE ALL
END PERIOD
