begin options
  precision single
  digits 10
  structured
end options

#
# Blocks defining single observations
#

#begin single head_obs.csv
#  h14_day1     head   1.0  14       # head obs at node 14, day 1
#  h14_day2     head   2.0  14       # head obs at node 14, day 2
#end single

# for structured option
begin single head_obs.csv
  h1_day1     head   1.0  2  3  6    # head obs at layer 2 row 3 col 6, day 1.0
  h1_day1.2   head   1.2  2  3  6    # head obs at layer 2 row 3 col 6, day 1.2
  h1_day1.4   head   1.4  2  3  6    # head obs at layer 2 row 3 col 6, day 1.4
  h1_day1.6   head   1.6  2  3  6    # head obs at layer 2 row 3 col 6, day 1.6
  h1_day1.8   head   1.8  2  3  6    # head obs at layer 2 row 3 col 6, day 1.8
  h1_day2     head   2.0  2  3  6    # head obs at layer 2 row 3 col 6, day 2.0
end single

# for structured option
begin single riv_obs.csv
  rv2-4-15d1    riv   1.0  2  4 15  # river flow at layer 2 row 4 col 15, day 1.0
  rv2-4-15d1.2  riv   1.2  2  4 15  # river flow at layer 2 row 4 col 15, day 1.2
  rv2-4-15d1.4  riv   1.4  2  4 15  # river flow at layer 2 row 4 col 15, day 1.4
  rv2-4-15d1.6  riv   1.6  2  4 15  # river flow at layer 2 row 4 col 15, day 1.6
  rv2-4-15d1.8  riv   1.8  2  4 15  # river flow at layer 2 row 4 col 15, day 1.8
  rv2-4-15d2.0  riv   2.0  2  4 15  # river flow at layer 2 row 4 col 15, day 2.0
end single

# for structured option, binary output file
#begin single riv_obs.bsv
#  rv2-4-15d1    riv   1.0  2  4 15  # river flow at layer 2 row 4 col 15, day 1.0
#  rv2-4-15d1.2  riv   1.2  2  4 15  # river flow at layer 2 row 4 col 15, day 1.2
#  rv2-4-15d1.4  riv   1.4  2  4 15  # river flow at layer 2 row 4 col 15, day 1.4
#  rv2-4-15d1.6  riv   1.6  2  4 15  # river flow at layer 2 row 4 col 15, day 1.6
#  rv2-4-15d1.8  riv   1.8  2  4 15  # river flow at layer 2 row 4 col 15, day 1.8
#  rv2-4-15d2.0  riv   2.0  2  4 15  # river flow at layer 2 row 4 col 15, day 2.0
#end single

#begin single riv_obs.csv
#  riv45_day1   riv    1.0  45        # riv obs at node 45, day 1
#end single
# later: add following single riv observation:
#  riv15_day2   riv    2.0  riv15     # riv obs at boundary named 'riv15', day 2

# for structured option
begin single intercell_flow_obs1.csv
  icf1_1.0  intercell-flow  1.0  1 4 7  1 4 8  # intercell flow between node 67 (1,4,7) and node 68 (1,4,8)
  icf1_1.2  intercell-flow  1.2  1 4 7  1 4 8  # intercell flow between node 67 (1,4,7) and node 68 (1,4,8)
  icf1_1.4  intercell-flow  1.4  1 4 7  1 4 8  # intercell flow between node 67 (1,4,7) and node 68 (1,4,8)
  icf1_1.6  intercell-flow  1.6  1 4 7  1 4 8  # intercell flow between node 67 (1,4,7) and node 68 (1,4,8)
  icf1_1.8  intercell-flow  1.8  1 4 7  1 4 8  # intercell flow between node 67 (1,4,7) and node 68 (1,4,8)
  icf1_2.0  intercell-flow  2.0  1 4 7  1 4 8  # intercell flow between node 67 (1,4,7) and node 68 (1,4,8)
end single

# for unstructured option
begin single intercell_flow_obs2.csv
  icf2_1.0  intercell-flow  1.0  1 4 7  1 5 7  # intercell flow between node 67 (1,4,7) and node 82 (1,5,7)
  icf2_1.2  intercell-flow  1.2  1 4 7  1 5 7  # intercell flow between node 67 (1,4,7) and node 82 (1,5,7)
  icf2_1.4  intercell-flow  1.4  1 4 7  1 5 7  # intercell flow between node 67 (1,4,7) and node 82 (1,5,7)
  icf2_1.6  intercell-flow  1.6  1 4 7  1 5 7  # intercell flow between node 67 (1,4,7) and node 82 (1,5,7)
  icf2_1.8  intercell-flow  1.8  1 4 7  1 5 7  # intercell flow between node 67 (1,4,7) and node 82 (1,5,7)
  icf2_2.0  intercell-flow  2.0  1 4 7  1 5 7  # intercell flow between node 67 (1,4,7) and node 82 (1,5,7)
end single

#
# Blocks defining continuous observations
#

# for structured option, identify boundary by ID
#begin continuous riv_flows.csv
#  riv2-3-15      riv  xyz      # sum of flows for riv boundary xyz
#end continuous

# for structured option, identify boundary by layer, row, column
begin continuous riv_flows.csv
  riv2-3-15      riv 2 3 15      # sum of flows for all riv cells at lay 2 row 3 col 15
  riv2-4-15      riv 2 4 15      # sum of flows for all riv cells at lay 2 row 4 col 15
  riv2-5-15      riv 2 5 15      # sum of flows for all riv cells at lay 2 row 5 col 15
end continuous

begin continuous ghb_flows.csv
  ghb1-3-1       ghb 1 3 1
  ghb1-7-1       ghb 1 7 1      
end continuous

#begin continuous head_hydrographs.csv
#  h27        head  27      # heads at node 27
#  h45        head  45      # heads at node 45
#end continuous

# for structured option
begin continuous head_hydrographs.csv
  h1-7-5        head  1  7  5      # heads at lay 1 row 7 col 5
  h2-8-9        head  2  8  9      # heads at lay 2 row 8 col 9
end continuous

# for structured option
begin continuous intercell_flows.csv
  icf1      intercell-flow    1 4 7  1 4 8  # intercell flow between node 67 (1,4,7) and node 68 (1,4,8)
  icf2      intercell-flow    1 4 7  1 5 7  # intercell flow between node 67 (1,4,7) and node 82 (1,5,7)
end continuous

