begin options
  precision single
  digits 10
  structured
  echo
end options

#
# Blocks defining single observations
#

#begin single head_obs.csv
#  h14_day1     head   1.0  14       # head obs at node 14, day 1
#  h14_day2     head   2.0  14       # head obs at node 14, day 2
#end single

# for structured option
begin single head_obs.csv
#begin single head_obs.bsv
  h1_day1     head   1.0  2  3  6    # head obs at layer 2 row 3 col 6
  h1_day2     head   2.0  2  3  6    # head obs at layer 2 row 3 col 6
  h1_day3.0   head   3.0  2  3  6    # head obs at layer 2 row 3 col 6
  h1_day4.1   head   4.1  2  3  6    # head obs at layer 2 row 3 col 6
  h1_day5.6   head   5.6  2  3  6    # head obs at layer 2 row 3 col 6
  h1_day10.8  head  10.8  2  3  6    # head obs at layer 2 row 3 col 6
end single

# for structured option
begin single riv_obs.csv
#begin single riv_obs.bsv  [binary output]
  rv2-4-15d1    riv   1.0  2  4 15  # river flow at layer 2 row 4 col 15
  rv2-4-15d2.0  riv   2.0  2  4 15  # river flow at layer 2 row 4 col 15
  rv2-4-15d3.0  riv   3.0  2  4 15  # river flow at layer 2 row 4 col 15
  rv2-4-15d4.1  riv   4.1  2  4 15  # river flow at layer 2 row 4 col 15
  rv2-4-15d5.6  riv   5.6  2  4 15  # river flow at layer 2 row 4 col 15
  rv2-4-15d10.8 riv  10.8  2  4 15  # river flow at layer 2 row 4 col 15
  riv2-10.8     riv  10.8  riv2     # river flow at river boundary "riv2"
  riv3-10.8     riv  10.8  riv3     # river flow at river boundary "riv3"
  rivX-10.8     riv  10.8  rivX     # sum of river flows at boundaries named "rivX"
  rv2-7-15d1    riv  10.8  2  7 15  # rivX, row 7
  rv2-8-15d1    riv  10.8  2  8 15  # rivX, row 8
  rv2-9-15d1    riv  10.8  2  9 15  # rivX, row 8
end single

# for structured option
begin single ghb_obs.csv
  gh1_7_1_1.0   ghb   1.0  1  7  1
  gh2upper1.0   ghb   1.0  ghb2_upper
  gh2upper1.0   ghb   1.0  ghb2_lower
  gh1_7_1_2.0   ghb   2.0  1  7  1
  gh2upper2.0   ghb   2.0  ghb2_upper
  gh2upper2.0   ghb   2.0  ghb2_lower
  gh1_7_1_3.0   ghb   3.0  1  7  1
  gh2upper3.0   ghb   3.0  ghb2_upper
  gh2upper3.0   ghb   3.0  ghb2_lower
  gh1_7_1_4.1   ghb   4.1  1  7  1
  gh2upper4.1   ghb   4.1  ghb2_upper
  gh2upper4.1   ghb   4.1  ghb2_lower
  gh1_7_1_5.6   ghb   5.6  1  7  1
  gh2upper5.6   ghb   5.6  ghb2_upper
  gh2upper5.6   ghb   5.6  ghb2_lower
  gh1_7_1_10.8  ghb  10.8  1  7  1
  gh2upper10.8  ghb  10.8  ghb2_upper
  gh2upper10.8  ghb  10.8  ghb2_lower
end single

#begin single riv_obs.csv
#  riv45_day1   riv    1.0  45        # riv obs at node 45, day 1
#end single
# later: add following single riv observation:
#  riv15_day2   riv    2.0  riv15     # riv obs at boundary named 'riv15', day 2

# for structured option
begin single intercell_flow_obs1.csv
#begin single intercell_flow_obs1.bsv
  icf1_1.0  intercell-flow  1.0  1 4 7  1 4 8  # intercell flow between (1,4,7) and (1,4,8)
  icf1_2.0  intercell-flow  2.0  1 4 7  1 4 8  # intercell flow between (1,4,7) and (1,4,8)
  icf1_3.0  intercell-flow  3.0  1 4 7  1 4 8  # intercell flow between (1,4,7) and (1,4,8)
  icf1_4.1  intercell-flow  4.1  1 4 7  1 4 8  # intercell flow between (1,4,7) and (1,4,8)
  icf1_5.6  intercell-flow  5.6  1 4 7  1 4 8  # intercell flow between (1,4,7) and (1,4,8)
  icf1_10.8 intercell-flow 10.8  1 4 7  1 4 8  # intercell flow between (1,4,7) and (1,4,8)
end single

# for unstructured option
begin single intercell_flow_obs2.csv
#begin single intercell_flow_obs2.bsv
  icf2_1.0  intercell-flow  1.0  1 4 7  1 5 7  # intercell flow between (1,4,7) and (1,5,7)
  icf2_2.0  intercell-flow  2.0  1 4 7  1 5 7  # intercell flow between (1,4,7) and (1,5,7)
  icf2_3.0  intercell-flow  3.0  1 4 7  1 5 7  # intercell flow between (1,4,7) and (1,5,7)
  icf2_4.1  intercell-flow  4.1  1 4 7  1 5 7  # intercell flow between (1,4,7) and (1,5,7)
  icf2_5.6  intercell-flow  5.6  1 4 7  1 5 7  # intercell flow between (1,4,7) and (1,5,7)
  icf2_10.8 intercell-flow 10.8  1 4 7  1 5 7  # intercell flow between (1,4,7) and (1,5,7)
end single

# for structured option
begin single chd_obs.csv
#begin single chd_obs.bsv
  chdf1.0      chd-flow   1.0   chd_gp  # constant-head flow at chd_gp
  chdf2.0      chd-flow   2.0   chd_gp  # constant-head flow at chd_gp
  chdf2.5      chd-flow   2.5   chd_gp  # constant-head flow at chd_gp
  chdf3.0      chd-flow   3.0   chd_gp  # constant-head flow at chd_gp
  chdf8.0      chd-flow   8.0   chd_gp  # constant-head flow at chd_gp
  chdf10.0     chd-flow  10.0   chd_gp  # constant-head flow at chd_gp
  chdf11.0     chd-flow  11.0   chd_gp  # constant-head flow at chd_gp
end single

#
# Blocks defining continuous observations
#

# for structured option, identify boundary by ID
#begin continuous riv_flows.csv
#  riv2-3-15      riv  xyz      # sum of flows for riv boundary xyz
#end continuous

# for structured option, identify boundary by layer, row, column
begin continuous riv_flows.csv
#begin continuous riv_flows.bsv
  riv2-3-15      riv 2 3 15      # sum of flows for all riv cells at lay 2 row 3 col 15
  riv2-4-15      riv 2 4 15      # sum of flows for all riv cells at lay 2 row 4 col 15
  riv2-5-15      riv 2 5 15      # sum of flows for all riv cells at lay 2 row 5 col 15
end continuous

begin continuous ghb_flows.csv
#begin continuous ghb_flows.bsv
  ghb1-3-1       ghb 1 3 1
  ghb1-7-1       ghb 1 7 1      
end continuous

# for structured option
begin continuous head_hydrographs.csv
#begin continuous head_hydrographs.bsv
  h1-3-4        head  1  3  4      # heads at lay 1 row 3 col 4
  h2-6-4        head  2  6  4      # heads at lay 2 row 6 col 4
end continuous

# for structured option
begin continuous intercell_flows.csv
#begin continuous intercell_flows.bsv
  icf1      intercell-flow    2 4 7  2 4 8  # intercell flow between (2,4,7) and (2,4,8)
  icf2      intercell-flow    2 4 7  2 5 7  # intercell flow between (2,4,7) and (2,5,7)
end continuous

# for structured option
begin continuous chd_flows.csv
#begin continuous chd_flows.bsv
  chdf_chd_gp      chd-flow    chd_gp  # constant-head flow
end continuous

