BEGIN OPTIONS
  HEAD PRINT FORMAT 4
  HEAD SAVE file test_sfr.hds
END OPTIONS

BEGIN PERIOD 1
  BUDGET PRINT FREQUENCY 5
  HEAD SAVE FREQUENCY 5
END PERIOD
