# DIS8 input file, prepared by mf5to15 on 4/17/2015 at 17:29:21.
    CONSTANT    51.0000000        BOTM confining layer below layer 1
    CONSTANT   -10.0000000        BOTM confining layer below layer 2

BEGIN Options
  LENGTH_UNITS  FEET
END Options

BEGIN Dimensions
  NLAY  5
  NROW  10
  NCOL  15
END Dimensions

BEGIN DisData
  DELR
    CONSTANT    500.000000        DELR
  DELC
    CONSTANT    500.000000        DELC
  TOP Structured
    CONSTANT    152.000000        TOP array
  BOTM Structured
    CONSTANT    100.000000        BOTM layer 1
    CONSTANT    51.0000000        BOTM layer 2
    CONSTANT    0.00000000        BOTM layer 3
    CONSTANT   -10.0000000        BOTM layer 4
    INTERNAL    1.00000000      (FREE)  -3    BOTM layer 5
 -50.0000000      -50.0000000      -50.0000000      -50.0000000      -50.0000000      -50.0000000      -50.0000000      -50.0000000      -50.0000000      -50.0000000    
 -50.0000000      -50.0000000      -50.0000000      -49.0000000      -51.0000000    
 -50.0000000      -50.0000000      -50.0000000      -50.0000000      -50.0000000      -50.0000000      -50.0000000      -50.0000000      -50.0000000      -50.0000000    
 -50.0000000      -50.0000000      -50.0000000      -50.0000000      -50.0000000    
 -50.0000000      -50.0000000      -50.0000000      -50.0000000      -50.0000000      -50.0000000      -50.0000000      -50.0000000      -50.0000000      -50.0000000    
 -50.0000000      -50.0000000      -50.0000000      -50.0000000      -50.0000000    
 -50.0000000      -50.0000000      -50.0000000      -50.0000000      -50.0000000      -50.0000000      -50.0000000      -50.0000000      -50.0000000      -50.0000000    
 -50.0000000      -50.0000000      -50.0000000      -50.0000000      -50.0000000    
 -50.0000000      -50.0000000      -50.0000000      -50.0000000      -50.0000000      -50.0000000      -50.0000000      -50.0000000      -50.0000000      -50.0000000    
 -50.0000000      -50.0000000      -50.0000000      -50.0000000      -50.0000000    
 -50.0000000      -50.0000000      -50.0000000      -50.0000000      -50.0000000      -50.0000000      -50.0000000      -50.0000000      -50.0000000      -50.0000000    
 -50.0000000      -50.0000000      -50.0000000      -50.0000000      -50.0000000    
 -50.0000000      -50.0000000      -50.0000000      -50.0000000      -50.0000000      -50.0000000      -50.0000000      -50.0000000      -50.0000000      -50.0000000    
 -50.0000000      -50.0000000      -50.0000000      -50.0000000      -50.0000000    
 -50.0000000      -50.0000000      -50.0000000      -50.0000000      -50.0000000      -50.0000000      -50.0000000      -50.0000000      -50.0000000      -50.0000000    
 -50.0000000      -50.0000000      -50.0000000      -50.0000000      -50.0000000    
 -50.0000000      -50.0000000      -50.0000000      -50.0000000      -50.0000000      -50.0000000      -50.0000000      -50.0000000      -50.0000000      -50.0000000    
 -50.0000000      -50.0000000      -50.0000000      -50.0000000      -50.0000000    
 -50.0000000      -50.0000000      -50.0000000      -50.0000000      -50.0000000      -50.0000000      -50.0000000      -50.0000000      -50.0000000      -50.0000000    
 -50.0000000      -50.0000000      -50.0000000      -50.0000000      -50.0000000    
END DisData
