# NPF8 input file, prepared by mf5to15 on 4/17/2015 at 17:29:21.

BEGIN Options
  PERCHED
  SAVE_FLOWS  bcftr15_bcftr.cbc
  HNOFLO    888.880000
  HDRY    777.770000
  CELL_AVERAGING  HARMONIC
  REWET
  WETFCT    1.00000000
END Options

BEGIN NpfData
  Icelltype structured
    CONSTANT  1
    CONSTANT  0
    CONSTANT  1
    CONSTANT  0
    CONSTANT  0
  HK  structured
    CONSTANT    10.0000000    
    CONSTANT   0.283000000E-07
    CONSTANT    5.00000000    
    CONSTANT   0.283000000E-07
    INTERNAL  1.0  (free)  -12
  12.5000000      12.5000000      12.5000000      12.5000000      12.5000000      12.5000000      12.5000000      12.5000000      12.5000000      12.5000000    
  12.5000000      12.5000000      12.5000000      12.8205128      12.1951220    
  12.5000000      12.5000000      12.5000000      12.5000000      12.5000000      12.5000000      12.5000000      12.5000000      12.5000000      12.5000000    
  12.5000000      12.5000000      12.5000000      12.5000000      12.5000000    
  12.5000000      12.5000000      12.5000000      12.5000000      12.5000000      12.5000000      12.5000000      12.5000000      12.5000000      12.5000000    
  12.5000000      12.5000000      12.5000000      12.5000000      12.5000000    
  12.5000000      12.5000000      12.5000000      12.5000000      12.5000000      12.5000000      12.5000000      12.5000000      12.5000000      12.5000000    
  12.5000000      12.5000000      12.5000000      12.5000000      12.5000000    
  12.5000000      12.5000000      12.5000000      12.5000000      12.5000000      12.5000000      12.5000000      12.5000000      12.5000000      12.5000000    
  12.5000000      12.5000000      12.5000000      12.5000000      12.5000000    
  12.5000000      12.5000000      12.5000000      12.5000000      12.5000000      12.5000000      12.5000000      12.5000000      12.5000000      12.5000000    
  12.5000000      12.5000000      12.5000000      12.5000000      12.5000000    
  12.5000000      12.5000000      12.5000000      12.5000000      12.5000000      12.5000000      12.5000000      12.5000000      12.5000000      12.5000000    
  12.5000000      12.5000000      12.5000000      12.5000000      12.5000000    
  12.5000000      12.5000000      12.5000000      12.5000000      12.5000000      12.5000000      12.5000000      12.5000000      12.5000000      12.5000000    
  12.5000000      12.5000000      12.5000000      12.5000000      12.5000000    
  12.5000000      12.5000000      12.5000000      12.5000000      12.5000000      12.5000000      12.5000000      12.5000000      12.5000000      12.5000000    
  12.5000000      12.5000000      12.5000000      12.5000000      12.5000000    
  12.5000000      12.5000000      12.5000000      12.5000000      12.5000000      12.5000000      12.5000000      12.5000000      12.5000000      12.5000000    
  12.5000000      12.5000000      12.5000000      12.5000000      12.5000000    
  VK  structured
    CONSTANT   0.100500000    
    CONSTANT   0.100500000    
    CONSTANT   0.100500000    
    INTERNAL  1.0  (free)  -12
 0.121818182     0.121818182     0.121818182     0.121818182     0.121818182     0.121818182     0.121818182     0.121818182     0.121818182     0.121818182    
 0.121818182     0.121818182     0.121818182     0.119787879     0.123848485    
 0.121818182     0.121818182     0.121818182     0.121818182     0.121818182     0.121818182     0.121818182     0.121818182     0.121818182     0.121818182    
 0.121818182     0.121818182     0.121818182     0.121818182     0.121818182    
 0.121818182     0.121818182     0.121818182     0.121818182     0.121818182     0.121818182     0.121818182     0.121818182     0.121818182     0.121818182    
 0.121818182     0.121818182     0.121818182     0.121818182     0.121818182    
 0.121818182     0.121818182     0.121818182     0.121818182     0.121818182     0.121818182     0.121818182     0.121818182     0.121818182     0.121818182    
 0.121818182     0.121818182     0.121818182     0.121818182     0.121818182    
 0.121818182     0.121818182     0.121818182     0.121818182     0.121818182     0.121818182     0.121818182     0.121818182     0.121818182     0.121818182    
 0.121818182     0.121818182     0.121818182     0.121818182     0.121818182    
 0.121818182     0.121818182     0.121818182     0.121818182     0.121818182     0.121818182     0.121818182     0.121818182     0.121818182     0.121818182    
 0.121818182     0.121818182     0.121818182     0.121818182     0.121818182    
 0.121818182     0.121818182     0.121818182     0.121818182     0.121818182     0.121818182     0.121818182     0.121818182     0.121818182     0.121818182    
 0.121818182     0.121818182     0.121818182     0.121818182     0.121818182    
 0.121818182     0.121818182     0.121818182     0.121818182     0.121818182     0.121818182     0.121818182     0.121818182     0.121818182     0.121818182    
 0.121818182     0.121818182     0.121818182     0.121818182     0.121818182    
 0.121818182     0.121818182     0.121818182     0.121818182     0.121818182     0.121818182     0.121818182     0.121818182     0.121818182     0.121818182    
 0.121818182     0.121818182     0.121818182     0.121818182     0.121818182    
 0.121818182     0.121818182     0.121818182     0.121818182     0.121818182     0.121818182     0.121818182     0.121818182     0.121818182     0.121818182    
 0.121818182     0.121818182     0.121818182     0.121818182     0.121818182    
    INTERNAL  1.0  (free)  -12
 0.121818182     0.121818182     0.121818182     0.121818182     0.121818182     0.121818182     0.121818182     0.121818182     0.121818182     0.121818182    
 0.121818182     0.121818182     0.121818182     0.119787879     0.123848485    
 0.121818182     0.121818182     0.121818182     0.121818182     0.121818182     0.121818182     0.121818182     0.121818182     0.121818182     0.121818182    
 0.121818182     0.121818182     0.121818182     0.121818182     0.121818182    
 0.121818182     0.121818182     0.121818182     0.121818182     0.121818182     0.121818182     0.121818182     0.121818182     0.121818182     0.121818182    
 0.121818182     0.121818182     0.121818182     0.121818182     0.121818182    
 0.121818182     0.121818182     0.121818182     0.121818182     0.121818182     0.121818182     0.121818182     0.121818182     0.121818182     0.121818182    
 0.121818182     0.121818182     0.121818182     0.121818182     0.121818182    
 0.121818182     0.121818182     0.121818182     0.121818182     0.121818182     0.121818182     0.121818182     0.121818182     0.121818182     0.121818182    
 0.121818182     0.121818182     0.121818182     0.121818182     0.121818182    
 0.121818182     0.121818182     0.121818182     0.121818182     0.121818182     0.121818182     0.121818182     0.121818182     0.121818182     0.121818182    
 0.121818182     0.121818182     0.121818182     0.121818182     0.121818182    
 0.121818182     0.121818182     0.121818182     0.121818182     0.121818182     0.121818182     0.121818182     0.121818182     0.121818182     0.121818182    
 0.121818182     0.121818182     0.121818182     0.121818182     0.121818182    
 0.121818182     0.121818182     0.121818182     0.121818182     0.121818182     0.121818182     0.121818182     0.121818182     0.121818182     0.121818182    
 0.121818182     0.121818182     0.121818182     0.121818182     0.121818182    
 0.121818182     0.121818182     0.121818182     0.121818182     0.121818182     0.121818182     0.121818182     0.121818182     0.121818182     0.121818182    
 0.121818182     0.121818182     0.121818182     0.121818182     0.121818182    
 0.121818182     0.121818182     0.121818182     0.121818182     0.121818182     0.121818182     0.121818182     0.121818182     0.121818182     0.121818182    
 0.121818182     0.121818182     0.121818182     0.121818182     0.121818182    
  WETDRY structured
    INTERNAL  1.0  (free)  -12
  2.00000000      2.00000000      2.00000000      2.00000000      2.00000000      2.00000000      2.00000000      2.00000000     -2.00000000     -2.00000000    
 -2.00000000     -2.00000000     -2.00000000     -2.00000000     -2.00000000    
  2.00000000      2.00000000      2.00000000      2.00000000      2.00000000      2.00000000      2.00000000      2.00000000     -2.00000000     -2.00000000    
 -2.00000000     -2.00000000     -2.00000000     -2.00000000     -2.00000000    
  2.00000000      2.00000000      2.00000000     -2.00000000      2.00000000      2.00000000      2.00000000      2.00000000     -2.00000000     -2.00000000    
 -2.00000000     -2.00000000     -2.00000000     -2.00000000     -2.00000000    
  2.00000000      2.00000000      2.00000000      2.00000000      2.00000000      2.00000000      2.00000000      2.00000000     -2.00000000     -2.00000000    
 -2.00000000     -2.00000000     -2.00000000     -2.00000000     -2.00000000    
  2.00000000      2.00000000      2.00000000      2.00000000      2.00000000      2.00000000      2.00000000      2.00000000     -2.00000000     -2.00000000    
 -2.00000000     -2.00000000     -2.00000000     -2.00000000     -2.00000000    
  2.00000000      2.00000000      2.00000000      2.00000000      2.00000000      2.00000000      2.00000000      2.00000000     -2.00000000     -2.00000000    
 -2.00000000     -2.00000000     -2.00000000     -2.00000000     -2.00000000    
  2.00000000      2.00000000      2.00000000      2.00000000      2.00000000      2.00000000      2.00000000      2.00000000     -2.00000000     -2.00000000    
 -2.00000000     -2.00000000     -2.00000000     -2.00000000     -2.00000000    
  2.00000000      2.00000000      2.00000000     -2.00000000      2.00000000      2.00000000      2.00000000      2.00000000     -2.00000000     -2.00000000    
 -2.00000000     -2.00000000     -2.00000000     -2.00000000     -2.00000000    
  2.00000000      2.00000000      2.00000000      2.00000000      2.00000000      2.00000000      2.00000000      2.00000000     -2.00000000     -2.00000000    
 -2.00000000     -2.00000000     -2.00000000     -2.00000000     -2.00000000    
  2.00000000      2.00000000      2.00000000      2.00000000      2.00000000      2.00000000      2.00000000      2.00000000     -2.00000000     -2.00000000    
 -2.00000000     -2.00000000     -2.00000000     -2.00000000     -2.00000000    
    CONSTANT    0.00000000    
    CONSTANT    2.00000000    
    CONSTANT    0.00000000    
    CONSTANT    0.00000000    
END NpfData
