# TDIS8 input file, prepared by mf5to15 on 4/17/2015 at 17:29:21.

BEGIN Options
  TIME_UNITS DAYS
END Options

BEGIN Dimensions
  NPER 2
END Dimensions

BEGIN Stress_Periods
    1.0000000               1    1.0000000      Items: PERLEN NSTP TSMULT
    365.00000              30    1.1000000      Items: PERLEN NSTP TSMULT
END Stress_Periods
