# RIV8 input file, prepared by mf5to15 on 4/17/2015 at 17:29:21.

BEGIN Options
  SAVE_FLOWS
END Options

BEGIN Dimensions
  MAXBOUND  10
END Dimensions

BEGIN PERIOD 1
   1  1  1    130.00000        10000.000        120.00000
   1  2  1    130.00000        10000.000        120.00000
   1  3  1    130.00000        10000.000        120.00000
   1  4  1    130.00000        10000.000        120.00000
   1  5  1    130.00000        10000.000        120.00000
   1  6  1    130.00000        10000.000        120.00000
   1  7  1    130.00000        10000.000        120.00000
   1  8  1    130.00000        10000.000        120.00000
   1  9  1    130.00000        10000.000        120.00000
   1  10  1    130.00000        10000.000        120.00000
END PERIOD
