# CHD8 input file, prepared by mf5to15 on 4/17/2015 at 17:29:21.

BEGIN Options
  PRINT_FLOWS
END Options

BEGIN Dimensions
  MAXBOUND  5
END Dimensions

BEGIN Period 1
  1  5  15    140.00000    
  1  6  14    140.00000    
  1  6  15    140.00000    
  1  7  14    140.00000    
  1  7  15    140.00000    
END Period
